<routes>
        <vType id="car" accel="0.8" decel="4.5" sigma="0.5" length="5" minGap="2.5" maxSpeed="11.11" />
        <vType id="car1" accel="0.8" decel="4.5" sigma="0.5" length="5" minGap="2.5" maxSpeed="11.11"/>

        <route id="left_up" edges="left -up" />
        <route id="left_right" edges="left -right" /> 
        <route id="left_down" edges="left -down" />
        <route id="down_left" edges="down -left" />
        <route id="down_up" edges="down -up" />
        <route id="down_right" edges="down -right" /> 
        <route id="right_down" edges="right -down" />
        <route id="right_left" edges="right -left" />
        <route id="right_up" edges="right -up" />
        <route id="up_right" edges="up -right" /> 
        <route id="up_down" edges="up -down" />
        <route id="up_left" edges="up -left" />
    <vehicle id="left_0" type="car" route="left_right" depart="0" />
    <vehicle id="up_1" type="car" route="up_right" depart="0" />
    <vehicle id="left_2" type="car" route="left_up" depart="1" />
    <vehicle id="right_3" type="car1" route="right_left" depart="1" color="1,0,0"/>
    <vehicle id="left_4" type="car1" route="left_down" depart="2" color="1,0,0"/>
    <vehicle id="down_5" type="car" route="down_right" depart="3" />
    <vehicle id="right_6" type="car1" route="right_left" depart="5" color="1,0,0"/>
    <vehicle id="down_7" type="car" route="down_right" depart="7" />
    <vehicle id="down_8" type="car" route="down_up" depart="8" />
    <vehicle id="down_9" type="car" route="down_up" depart="10" />
    <vehicle id="right_10" type="car1" route="right_down" depart="10" color="1,0,0"/>
    <vehicle id="left_11" type="car1" route="left_down" depart="11" color="1,0,0"/>
    <vehicle id="down_12" type="car" route="down_up" depart="11" />
    <vehicle id="down_13" type="car" route="down_up" depart="13" />
    <vehicle id="down_14" type="car" route="down_right" depart="16" />
    <vehicle id="down_15" type="car1" route="down_left" depart="17" color="1,0,0"/>
    <vehicle id="left_16" type="car1" route="left_down" depart="19" color="1,0,0"/>
    <vehicle id="left_17" type="car" route="left_up" depart="21" />
    <vehicle id="down_18" type="car" route="down_up" depart="21" />
    <vehicle id="down_19" type="car" route="down_right" depart="22" />
    <vehicle id="left_20" type="car1" route="left_down" depart="24" color="1,0,0"/>
    <vehicle id="up_21" type="car" route="up_right" depart="24" />
    <vehicle id="left_22" type="car" route="left_up" depart="27" />
    <vehicle id="right_23" type="car1" route="right_down" depart="28" color="1,0,0"/>
    <vehicle id="right_24" type="car" route="right_up" depart="30" />
    <vehicle id="down_25" type="car1" route="down_left" depart="31" color="1,0,0"/>
    <vehicle id="up_26" type="car1" route="up_down" depart="32" color="1,0,0"/>
    <vehicle id="right_27" type="car1" route="right_left" depart="34" color="1,0,0"/>
    <vehicle id="right_28" type="car1" route="right_left" depart="35" color="1,0,0"/>
    <vehicle id="down_29" type="car1" route="down_left" depart="36" color="1,0,0"/>
    <vehicle id="down_30" type="car" route="down_up" depart="38" />
    <vehicle id="left_31" type="car" route="left_right" depart="39" />
    <vehicle id="left_32" type="car" route="left_right" depart="40" />
    <vehicle id="left_33" type="car" route="left_right" depart="41" />
    <vehicle id="up_34" type="car" route="up_right" depart="41" />
    <vehicle id="left_35" type="car" route="left_up" depart="42" />
    <vehicle id="down_36" type="car" route="down_up" depart="42" />
    <vehicle id="left_37" type="car" route="left_right" depart="43" />
    <vehicle id="left_38" type="car1" route="left_down" depart="43" color="1,0,0"/>
    <vehicle id="left_39" type="car" route="left_up" depart="44" />
    <vehicle id="down_40" type="car1" route="down_left" depart="45" color="1,0,0"/>
    <vehicle id="left_41" type="car" route="left_right" depart="49" />
    <vehicle id="up_42" type="car1" route="up_down" depart="49" color="1,0,0"/>
    <vehicle id="left_43" type="car" route="left_up" depart="50" />
    <vehicle id="left_44" type="car" route="left_right" depart="53" />
    <vehicle id="down_45" type="car1" route="down_left" depart="54" color="1,0,0"/>
    <vehicle id="left_46" type="car" route="left_up" depart="57" />
    <vehicle id="left_47" type="car" route="left_up" depart="60" />
    <vehicle id="left_48" type="car" route="left_right" depart="68" />
    <vehicle id="up_49" type="car1" route="up_down" depart="68" color="1,0,0"/>
    <vehicle id="up_50" type="car1" route="up_left" depart="70" color="1,0,0"/>
    <vehicle id="left_51" type="car" route="left_up" depart="71" />
    <vehicle id="left_52" type="car" route="left_up" depart="72" />
    <vehicle id="right_53" type="car1" route="right_down" depart="73" color="1,0,0"/>
    <vehicle id="down_54" type="car" route="down_right" depart="77" />
    <vehicle id="right_55" type="car" route="right_up" depart="79" />
    <vehicle id="right_56" type="car1" route="right_down" depart="80" color="1,0,0"/>
    <vehicle id="up_57" type="car1" route="up_left" depart="82" color="1,0,0"/>
    <vehicle id="down_58" type="car" route="down_right" depart="84" />
    <vehicle id="right_59" type="car1" route="right_down" depart="85" color="1,0,0"/>
    <vehicle id="left_60" type="car" route="left_right" depart="86" />
    <vehicle id="left_61" type="car1" route="left_down" depart="86" color="1,0,0"/>
    <vehicle id="down_62" type="car" route="down_right" depart="87" />
    <vehicle id="down_63" type="car" route="down_right" depart="88" />
    <vehicle id="left_64" type="car" route="left_right" depart="91" />
    <vehicle id="left_65" type="car1" route="left_down" depart="91" color="1,0,0"/>
    <vehicle id="up_66" type="car" route="up_right" depart="93" />
    <vehicle id="down_67" type="car" route="down_right" depart="94" />
    <vehicle id="up_68" type="car1" route="up_left" depart="94" color="1,0,0"/>
    <vehicle id="left_69" type="car" route="left_right" depart="97" />
    <vehicle id="down_70" type="car" route="down_up" depart="97" />
    <vehicle id="up_71" type="car1" route="up_down" depart="97" color="1,0,0"/>
    <vehicle id="up_72" type="car" route="up_right" depart="98" />
    <vehicle id="down_73" type="car" route="down_right" depart="99" />
    <vehicle id="left_74" type="car" route="left_up" depart="103" />
    <vehicle id="down_75" type="car" route="down_up" depart="103" />
    <vehicle id="left_76" type="car" route="left_right" depart="105" />
    <vehicle id="left_77" type="car1" route="left_down" depart="110" color="1,0,0"/>
    <vehicle id="down_78" type="car" route="down_right" depart="114" />
    <vehicle id="up_79" type="car1" route="up_left" depart="114" color="1,0,0"/>
    <vehicle id="up_80" type="car1" route="up_left" depart="115" color="1,0,0"/>
    <vehicle id="left_81" type="car" route="left_up" depart="116" />
    <vehicle id="up_82" type="car" route="up_right" depart="116" />
    <vehicle id="down_83" type="car" route="down_up" depart="117" />
    <vehicle id="left_84" type="car" route="left_right" depart="118" />
    <vehicle id="down_85" type="car1" route="down_left" depart="118" color="1,0,0"/>
    <vehicle id="left_86" type="car" route="left_right" depart="119" />
    <vehicle id="up_87" type="car" route="up_right" depart="119" />
    <vehicle id="up_88" type="car1" route="up_down" depart="120" color="1,0,0"/>
    <vehicle id="left_89" type="car" route="left_up" depart="121" />
    <vehicle id="left_90" type="car" route="left_right" depart="123" />
    <vehicle id="left_91" type="car" route="left_right" depart="124" />
    <vehicle id="down_92" type="car" route="down_right" depart="125" />
    <vehicle id="left_93" type="car1" route="left_down" depart="128" color="1,0,0"/>
    <vehicle id="right_94" type="car" route="right_up" depart="129" />
    <vehicle id="left_95" type="car1" route="left_down" depart="130" color="1,0,0"/>
    <vehicle id="left_96" type="car" route="left_up" depart="134" />
    <vehicle id="left_97" type="car" route="left_right" depart="134" />
    <vehicle id="down_98" type="car" route="down_up" depart="135" />
    <vehicle id="down_99" type="car" route="down_right" depart="135" />
    <vehicle id="left_100" type="car" route="left_right" depart="138" />
    <vehicle id="down_101" type="car1" route="down_left" depart="141" color="1,0,0"/>
    <vehicle id="down_102" type="car" route="down_right" depart="143" />
    <vehicle id="right_103" type="car1" route="right_left" depart="144" color="1,0,0"/>
    <vehicle id="up_104" type="car1" route="up_down" depart="144" color="1,0,0"/>
    <vehicle id="left_105" type="car1" route="left_down" depart="150" color="1,0,0"/>
    <vehicle id="right_106" type="car1" route="right_left" depart="150" color="1,0,0"/>
    <vehicle id="left_107" type="car" route="left_up" depart="153" />
    <vehicle id="left_108" type="car1" route="left_down" depart="155" color="1,0,0"/>
    <vehicle id="left_109" type="car1" route="left_down" depart="156" color="1,0,0"/>
    <vehicle id="down_110" type="car" route="down_right" depart="156" />
    <vehicle id="left_111" type="car" route="left_up" depart="159" />
    <vehicle id="down_112" type="car" route="down_up" depart="160" />
    <vehicle id="left_113" type="car" route="left_up" depart="161" />
    <vehicle id="left_114" type="car1" route="left_down" depart="161" color="1,0,0"/>
    <vehicle id="down_115" type="car" route="down_right" depart="161" />
    <vehicle id="right_116" type="car1" route="right_left" depart="161" color="1,0,0"/>
    <vehicle id="down_117" type="car" route="down_right" depart="163" />
    <vehicle id="right_118" type="car1" route="right_down" depart="163" color="1,0,0"/>
    <vehicle id="up_119" type="car1" route="up_down" depart="164" color="1,0,0"/>
    <vehicle id="left_120" type="car" route="left_right" depart="165" />
    <vehicle id="down_121" type="car" route="down_up" depart="165" />
    <vehicle id="left_122" type="car" route="left_up" depart="167" />
    <vehicle id="up_123" type="car1" route="up_down" depart="170" color="1,0,0"/>
    <vehicle id="left_124" type="car1" route="left_down" depart="175" color="1,0,0"/>
    <vehicle id="down_125" type="car1" route="down_left" depart="175" color="1,0,0"/>
    <vehicle id="left_126" type="car" route="left_up" depart="176" />
    <vehicle id="right_127" type="car" route="right_up" depart="176" />
    <vehicle id="up_128" type="car1" route="up_down" depart="176" color="1,0,0"/>
    <vehicle id="left_129" type="car1" route="left_down" depart="177" color="1,0,0"/>
    <vehicle id="left_130" type="car" route="left_right" depart="179" />
    <vehicle id="down_131" type="car" route="down_up" depart="179" />
    <vehicle id="down_132" type="car" route="down_right" depart="179" />
    <vehicle id="left_133" type="car" route="left_up" depart="180" />
    <vehicle id="left_134" type="car1" route="left_down" depart="180" color="1,0,0"/>
    <vehicle id="left_135" type="car" route="left_up" depart="181" />
    <vehicle id="down_136" type="car" route="down_right" depart="183" />
    <vehicle id="left_137" type="car1" route="left_down" depart="184" color="1,0,0"/>
    <vehicle id="left_138" type="car" route="left_right" depart="185" />
    <vehicle id="up_139" type="car1" route="up_down" depart="185" color="1,0,0"/>
    <vehicle id="left_140" type="car" route="left_up" depart="186" />
    <vehicle id="down_141" type="car" route="down_up" depart="187" />
    <vehicle id="left_142" type="car" route="left_right" depart="192" />
    <vehicle id="left_143" type="car1" route="left_down" depart="193" color="1,0,0"/>
    <vehicle id="left_144" type="car1" route="left_down" depart="194" color="1,0,0"/>
    <vehicle id="left_145" type="car1" route="left_down" depart="195" color="1,0,0"/>
    <vehicle id="up_146" type="car1" route="up_left" depart="197" color="1,0,0"/>
    <vehicle id="down_147" type="car" route="down_up" depart="200" />
    <vehicle id="left_148" type="car" route="left_up" depart="202" />
    <vehicle id="left_149" type="car1" route="left_down" depart="202" color="1,0,0"/>
    <vehicle id="left_150" type="car" route="left_up" depart="203" />
    <vehicle id="left_151" type="car" route="left_right" depart="203" />
    <vehicle id="down_152" type="car" route="down_right" depart="204" />
    <vehicle id="left_153" type="car" route="left_right" depart="209" />
    <vehicle id="right_154" type="car" route="right_up" depart="209" />
    <vehicle id="down_155" type="car1" route="down_left" depart="210" color="1,0,0"/>
    <vehicle id="down_156" type="car" route="down_up" depart="211" />
    <vehicle id="up_157" type="car1" route="up_left" depart="211" color="1,0,0"/>
    <vehicle id="right_158" type="car1" route="right_left" depart="213" color="1,0,0"/>
    <vehicle id="left_159" type="car" route="left_up" depart="214" />
    <vehicle id="right_160" type="car1" route="right_left" depart="215" color="1,0,0"/>
    <vehicle id="down_161" type="car" route="down_up" depart="216" />
    <vehicle id="left_162" type="car" route="left_right" depart="217" />
    <vehicle id="left_163" type="car1" route="left_down" depart="218" color="1,0,0"/>
    <vehicle id="up_164" type="car" route="up_right" depart="219" />
    <vehicle id="left_165" type="car" route="left_up" depart="220" />
    <vehicle id="left_166" type="car" route="left_right" depart="220" />
    <vehicle id="left_167" type="car" route="left_right" depart="222" />
    <vehicle id="left_168" type="car1" route="left_down" depart="222" color="1,0,0"/>
    <vehicle id="up_169" type="car1" route="up_left" depart="223" color="1,0,0"/>
    <vehicle id="left_170" type="car1" route="left_down" depart="224" color="1,0,0"/>
    <vehicle id="down_171" type="car" route="down_right" depart="224" />
    <vehicle id="down_172" type="car" route="down_right" depart="225" />
    <vehicle id="down_173" type="car" route="down_right" depart="227" />
    <vehicle id="up_174" type="car1" route="up_left" depart="227" color="1,0,0"/>
    <vehicle id="left_175" type="car" route="left_up" depart="229" />
    <vehicle id="right_176" type="car1" route="right_left" depart="229" color="1,0,0"/>
    <vehicle id="down_177" type="car1" route="down_left" depart="230" color="1,0,0"/>
    <vehicle id="left_178" type="car" route="left_right" depart="231" />
    <vehicle id="left_179" type="car1" route="left_down" depart="231" color="1,0,0"/>
    <vehicle id="down_180" type="car" route="down_right" depart="231" />
    <vehicle id="down_181" type="car" route="down_right" depart="232" />
    <vehicle id="up_182" type="car1" route="up_left" depart="233" color="1,0,0"/>
    <vehicle id="left_183" type="car1" route="left_down" depart="234" color="1,0,0"/>
    <vehicle id="up_184" type="car" route="up_right" depart="234" />
    <vehicle id="down_185" type="car" route="down_right" depart="235" />
    <vehicle id="down_186" type="car" route="down_up" depart="236" />
    <vehicle id="down_187" type="car" route="down_right" depart="236" />
    <vehicle id="left_188" type="car" route="left_up" depart="237" />
    <vehicle id="right_189" type="car1" route="right_down" depart="237" color="1,0,0"/>
    <vehicle id="left_190" type="car" route="left_right" depart="238" />
    <vehicle id="down_191" type="car" route="down_right" depart="240" />
    <vehicle id="down_192" type="car" route="down_up" depart="241" />
    <vehicle id="down_193" type="car" route="down_right" depart="242" />
    <vehicle id="down_194" type="car" route="down_up" depart="243" />
    <vehicle id="right_195" type="car" route="right_up" depart="243" />
    <vehicle id="down_196" type="car" route="down_up" depart="244" />
    <vehicle id="down_197" type="car1" route="down_left" depart="247" color="1,0,0"/>
    <vehicle id="down_198" type="car" route="down_up" depart="248" />
    <vehicle id="left_199" type="car1" route="left_down" depart="249" color="1,0,0"/>
    <vehicle id="down_200" type="car" route="down_up" depart="250" />
    <vehicle id="right_201" type="car1" route="right_left" depart="251" color="1,0,0"/>
    <vehicle id="up_202" type="car" route="up_right" depart="252" />
    <vehicle id="right_203" type="car1" route="right_left" depart="253" color="1,0,0"/>
    <vehicle id="left_204" type="car1" route="left_down" depart="255" color="1,0,0"/>
    <vehicle id="down_205" type="car" route="down_right" depart="255" />
    <vehicle id="up_206" type="car" route="up_right" depart="260" />
    <vehicle id="left_207" type="car1" route="left_down" depart="261" color="1,0,0"/>
    <vehicle id="up_208" type="car" route="up_right" depart="261" />
    <vehicle id="left_209" type="car1" route="left_down" depart="264" color="1,0,0"/>
    <vehicle id="down_210" type="car1" route="down_left" depart="265" color="1,0,0"/>
    <vehicle id="left_211" type="car" route="left_up" depart="267" />
    <vehicle id="down_212" type="car1" route="down_left" depart="267" color="1,0,0"/>
    <vehicle id="right_213" type="car1" route="right_left" depart="267" color="1,0,0"/>
    <vehicle id="down_214" type="car" route="down_up" depart="271" />
    <vehicle id="down_215" type="car1" route="down_left" depart="273" color="1,0,0"/>
    <vehicle id="down_216" type="car" route="down_up" depart="274" />
    <vehicle id="left_217" type="car" route="left_right" depart="276" />
    <vehicle id="left_218" type="car1" route="left_down" depart="277" color="1,0,0"/>
    <vehicle id="down_219" type="car" route="down_right" depart="277" />
    <vehicle id="down_220" type="car" route="down_right" depart="280" />
    <vehicle id="up_221" type="car" route="up_right" depart="280" />
    <vehicle id="left_222" type="car" route="left_right" depart="281" />
    <vehicle id="down_223" type="car" route="down_right" depart="283" />
    <vehicle id="up_224" type="car1" route="up_down" depart="283" color="1,0,0"/>
    <vehicle id="down_225" type="car" route="down_up" depart="284" />
    <vehicle id="left_226" type="car" route="left_right" depart="285" />
    <vehicle id="down_227" type="car1" route="down_left" depart="285" color="1,0,0"/>
    <vehicle id="up_228" type="car1" route="up_down" depart="285" color="1,0,0"/>
    <vehicle id="down_229" type="car" route="down_right" depart="288" />
    <vehicle id="left_230" type="car" route="left_right" depart="289" />
    <vehicle id="left_231" type="car1" route="left_down" depart="290" color="1,0,0"/>
    <vehicle id="down_232" type="car" route="down_right" depart="291" />
    <vehicle id="left_233" type="car" route="left_right" depart="293" />
    <vehicle id="left_234" type="car1" route="left_down" depart="293" color="1,0,0"/>
    <vehicle id="down_235" type="car" route="down_up" depart="295" />
    <vehicle id="down_236" type="car" route="down_right" depart="297" />
    <vehicle id="left_237" type="car" route="left_up" depart="302" />
    <vehicle id="left_238" type="car" route="left_up" depart="303" />
    <vehicle id="right_239" type="car1" route="right_left" depart="304" color="1,0,0"/>
    <vehicle id="left_240" type="car1" route="left_down" depart="307" color="1,0,0"/>
    <vehicle id="left_241" type="car" route="left_right" depart="308" />
    <vehicle id="down_242" type="car" route="down_up" depart="309" />
    <vehicle id="up_243" type="car1" route="up_left" depart="310" color="1,0,0"/>
    <vehicle id="right_244" type="car1" route="right_left" depart="311" color="1,0,0"/>
    <vehicle id="left_245" type="car" route="left_up" depart="313" />
    <vehicle id="left_246" type="car" route="left_right" depart="313" />
    <vehicle id="up_247" type="car1" route="up_down" depart="313" color="1,0,0"/>
    <vehicle id="up_248" type="car" route="up_right" depart="316" />
    <vehicle id="down_249" type="car" route="down_up" depart="320" />
    <vehicle id="left_250" type="car" route="left_right" depart="322" />
    <vehicle id="left_251" type="car1" route="left_down" depart="322" color="1,0,0"/>
    <vehicle id="down_252" type="car1" route="down_left" depart="322" color="1,0,0"/>
    <vehicle id="down_253" type="car" route="down_right" depart="322" />
    <vehicle id="down_254" type="car" route="down_up" depart="325" />
    <vehicle id="left_255" type="car" route="left_up" depart="326" />
    <vehicle id="left_256" type="car1" route="left_down" depart="328" color="1,0,0"/>
    <vehicle id="down_257" type="car" route="down_right" depart="329" />
    <vehicle id="up_258" type="car1" route="up_down" depart="329" color="1,0,0"/>
    <vehicle id="left_259" type="car" route="left_up" depart="330" />
    <vehicle id="right_260" type="car1" route="right_down" depart="330" color="1,0,0"/>
    <vehicle id="left_261" type="car" route="left_right" depart="333" />
    <vehicle id="left_262" type="car1" route="left_down" depart="334" color="1,0,0"/>
    <vehicle id="left_263" type="car" route="left_up" depart="335" />
    <vehicle id="left_264" type="car" route="left_right" depart="336" />
    <vehicle id="down_265" type="car1" route="down_left" depart="339" color="1,0,0"/>
    <vehicle id="up_266" type="car1" route="up_left" depart="339" color="1,0,0"/>
    <vehicle id="left_267" type="car1" route="left_down" depart="341" color="1,0,0"/>
    <vehicle id="up_268" type="car" route="up_right" depart="341" />
    <vehicle id="left_269" type="car1" route="left_down" depart="345" color="1,0,0"/>
    <vehicle id="down_270" type="car" route="down_up" depart="345" />
    <vehicle id="left_271" type="car" route="left_up" depart="346" />
    <vehicle id="right_272" type="car" route="right_up" depart="350" />
    <vehicle id="left_273" type="car1" route="left_down" depart="354" color="1,0,0"/>
    <vehicle id="left_274" type="car" route="left_up" depart="355" />
    <vehicle id="left_275" type="car" route="left_up" depart="357" />
    <vehicle id="down_276" type="car1" route="down_left" depart="358" color="1,0,0"/>
    <vehicle id="left_277" type="car1" route="left_down" depart="359" color="1,0,0"/>
    <vehicle id="down_278" type="car" route="down_right" depart="359" />
    <vehicle id="down_279" type="car" route="down_up" depart="360" />
    <vehicle id="right_280" type="car1" route="right_down" depart="362" color="1,0,0"/>
    <vehicle id="up_281" type="car1" route="up_left" depart="362" color="1,0,0"/>
    <vehicle id="down_282" type="car1" route="down_left" depart="363" color="1,0,0"/>
    <vehicle id="right_283" type="car1" route="right_left" depart="363" color="1,0,0"/>
    <vehicle id="up_284" type="car1" route="up_left" depart="365" color="1,0,0"/>
    <vehicle id="left_285" type="car" route="left_up" depart="366" />
    <vehicle id="up_286" type="car" route="up_right" depart="368" />
    <vehicle id="up_287" type="car1" route="up_left" depart="370" color="1,0,0"/>
    <vehicle id="left_288" type="car" route="left_up" depart="371" />
    <vehicle id="down_289" type="car" route="down_right" depart="371" />
    <vehicle id="left_290" type="car" route="left_up" depart="372" />
    <vehicle id="down_291" type="car" route="down_up" depart="374" />
    <vehicle id="up_292" type="car" route="up_right" depart="374" />
    <vehicle id="left_293" type="car" route="left_right" depart="375" />
    <vehicle id="down_294" type="car" route="down_right" depart="376" />
    <vehicle id="left_295" type="car" route="left_right" depart="378" />
    <vehicle id="down_296" type="car1" route="down_left" depart="378" color="1,0,0"/>
    <vehicle id="up_297" type="car1" route="up_left" depart="378" color="1,0,0"/>
    <vehicle id="left_298" type="car" route="left_up" depart="379" />
    <vehicle id="down_299" type="car" route="down_right" depart="383" />
    <vehicle id="left_300" type="car" route="left_right" depart="384" />
    <vehicle id="left_301" type="car" route="left_up" depart="386" />
    <vehicle id="up_302" type="car1" route="up_down" depart="386" color="1,0,0"/>
    <vehicle id="left_303" type="car1" route="left_down" depart="387" color="1,0,0"/>
    <vehicle id="down_304" type="car" route="down_right" depart="388" />
    <vehicle id="left_305" type="car" route="left_right" depart="390" />
    <vehicle id="right_306" type="car1" route="right_left" depart="390" color="1,0,0"/>
    <vehicle id="left_307" type="car1" route="left_down" depart="391" color="1,0,0"/>
    <vehicle id="left_308" type="car1" route="left_down" depart="392" color="1,0,0"/>
    <vehicle id="right_309" type="car1" route="right_down" depart="392" color="1,0,0"/>
    <vehicle id="down_310" type="car" route="down_up" depart="393" />
    <vehicle id="left_311" type="car" route="left_up" depart="394" />
    <vehicle id="left_312" type="car1" route="left_down" depart="394" color="1,0,0"/>
    <vehicle id="right_313" type="car" route="right_up" depart="394" />
    <vehicle id="left_314" type="car1" route="left_down" depart="395" color="1,0,0"/>
    <vehicle id="up_315" type="car1" route="up_down" depart="395" color="1,0,0"/>
    <vehicle id="down_316" type="car1" route="down_left" depart="397" color="1,0,0"/>
    <vehicle id="left_317" type="car" route="left_up" depart="403" />
    <vehicle id="left_318" type="car1" route="left_down" depart="403" color="1,0,0"/>
    <vehicle id="down_319" type="car" route="down_right" depart="404" />
    <vehicle id="left_320" type="car1" route="left_down" depart="406" color="1,0,0"/>
    <vehicle id="down_321" type="car" route="down_right" depart="411" />
    <vehicle id="up_322" type="car" route="up_right" depart="412" />
    <vehicle id="down_323" type="car1" route="down_left" depart="413" color="1,0,0"/>
    <vehicle id="down_324" type="car" route="down_right" depart="417" />
    <vehicle id="right_325" type="car1" route="right_down" depart="417" color="1,0,0"/>
    <vehicle id="down_326" type="car" route="down_up" depart="418" />
    <vehicle id="up_327" type="car1" route="up_left" depart="418" color="1,0,0"/>
    <vehicle id="down_328" type="car" route="down_up" depart="419" />
    <vehicle id="right_329" type="car" route="right_up" depart="421" />
    <vehicle id="right_330" type="car1" route="right_left" depart="422" color="1,0,0"/>
    <vehicle id="right_331" type="car" route="right_up" depart="423" />
    <vehicle id="left_332" type="car1" route="left_down" depart="425" color="1,0,0"/>
    <vehicle id="up_333" type="car1" route="up_left" depart="426" color="1,0,0"/>
    <vehicle id="down_334" type="car" route="down_right" depart="428" />
    <vehicle id="down_335" type="car" route="down_up" depart="431" />
    <vehicle id="down_336" type="car1" route="down_left" depart="435" color="1,0,0"/>
    <vehicle id="right_337" type="car" route="right_up" depart="435" />
    <vehicle id="left_338" type="car" route="left_up" depart="437" />
    <vehicle id="left_339" type="car" route="left_right" depart="437" />
    <vehicle id="right_340" type="car" route="right_up" depart="439" />
    <vehicle id="left_341" type="car" route="left_right" depart="440" />
    <vehicle id="left_342" type="car" route="left_up" depart="443" />
    <vehicle id="down_343" type="car" route="down_up" depart="443" />
    <vehicle id="left_344" type="car" route="left_up" depart="445" />
    <vehicle id="down_345" type="car1" route="down_left" depart="445" color="1,0,0"/>
    <vehicle id="down_346" type="car1" route="down_left" depart="446" color="1,0,0"/>
    <vehicle id="down_347" type="car" route="down_up" depart="447" />
    <vehicle id="right_348" type="car1" route="right_left" depart="449" color="1,0,0"/>
    <vehicle id="left_349" type="car" route="left_right" depart="450" />
    <vehicle id="left_350" type="car" route="left_up" depart="452" />
    <vehicle id="left_351" type="car" route="left_right" depart="452" />
    <vehicle id="right_352" type="car1" route="right_left" depart="452" color="1,0,0"/>
    <vehicle id="down_353" type="car1" route="down_left" depart="455" color="1,0,0"/>
    <vehicle id="down_354" type="car" route="down_up" depart="458" />
    <vehicle id="down_355" type="car1" route="down_left" depart="459" color="1,0,0"/>
    <vehicle id="up_356" type="car1" route="up_left" depart="459" color="1,0,0"/>
    <vehicle id="left_357" type="car1" route="left_down" depart="461" color="1,0,0"/>
    <vehicle id="up_358" type="car" route="up_right" depart="461" />
    <vehicle id="left_359" type="car" route="left_up" depart="462" />
    <vehicle id="up_360" type="car1" route="up_down" depart="462" color="1,0,0"/>
    <vehicle id="down_361" type="car1" route="down_left" depart="463" color="1,0,0"/>
    <vehicle id="down_362" type="car1" route="down_left" depart="466" color="1,0,0"/>
    <vehicle id="right_363" type="car" route="right_up" depart="466" />
    <vehicle id="up_364" type="car1" route="up_down" depart="466" color="1,0,0"/>
    <vehicle id="left_365" type="car" route="left_up" depart="467" />
    <vehicle id="left_366" type="car" route="left_right" depart="468" />
    <vehicle id="right_367" type="car" route="right_up" depart="468" />
    <vehicle id="left_368" type="car" route="left_up" depart="469" />
    <vehicle id="down_369" type="car1" route="down_left" depart="470" color="1,0,0"/>
    <vehicle id="up_370" type="car1" route="up_down" depart="470" color="1,0,0"/>
    <vehicle id="left_371" type="car1" route="left_down" depart="472" color="1,0,0"/>
    <vehicle id="down_372" type="car1" route="down_left" depart="476" color="1,0,0"/>
    <vehicle id="down_373" type="car" route="down_right" depart="476" />
    <vehicle id="down_374" type="car" route="down_up" depart="477" />
    <vehicle id="down_375" type="car" route="down_up" depart="478" />
    <vehicle id="left_376" type="car1" route="left_down" depart="479" color="1,0,0"/>
    <vehicle id="down_377" type="car" route="down_right" depart="479" />
    <vehicle id="left_378" type="car" route="left_up" depart="480" />
    <vehicle id="down_379" type="car1" route="down_left" depart="480" color="1,0,0"/>
    <vehicle id="left_380" type="car" route="left_right" depart="481" />