<?xml version="1.0" encoding="iso-8859-1"?>
<configuration xmlns:xsi="https://www.w3.org/2001/XMLSchema-instance"
  xsi:noNamespaceSchemaLocation="https://sumo.dlr.de/xsd/sumoConfiguration.xsd">
    <input>
        <net-file value="test2.net.xml"/>
        <route-files value="test2.rou.xml"/>
        <!--additional-files value="test.add.xml"/-->
    </input>
    <time>
        <begin value="0"/>
        <end value="10000"/>
    </time>
</configuration>