<routes>
        <vType id="car" accel="0.8" decel="4.5" sigma="0.5" length="5" minGap="2.5" maxSpeed="11.11" />
        <vType id="car1" accel="0.8" decel="4.5" sigma="0.5" length="5" minGap="2.5" maxSpeed="11.11"/>

        <route id="left" edges="left -right" />
        <route id="up" edges="up -down" /> 
        <route id="right" edges="right -left" />
        <route id="down" edges="down -up" />
    <vehicle id="left_0" type="car" route="left" depart="0" />
    <vehicle id="left_1" type="car" route="left" depart="2" />
    <vehicle id="right_2" type="car" route="right" depart="3" />
    <vehicle id="up_3" type="car1" route="up" depart="4" color="1,0,0"/>
    <vehicle id="left_4" type="car" route="left" depart="10" />
    <vehicle id="right_5" type="car" route="right" depart="11" />
    <vehicle id="up_6" type="car1" route="up" depart="16" color="1,0,0"/>
    <vehicle id="right_7" type="car" route="right" depart="22" />
    <vehicle id="left_8" type="car" route="left" depart="22" />
    <vehicle id="right_9" type="car" route="right" depart="25" />
    <vehicle id="right_10" type="car" route="right" depart="31" />
    <vehicle id="down_11" type="car1" route="down" depart="31" color="1,0,0"/>
    <vehicle id="right_12" type="car" route="right" depart="34" />
    <vehicle id="right_13" type="car" route="right" depart="40" />
    <vehicle id="left_14" type="car" route="left" depart="41" />
    <vehicle id="right_15" type="car" route="right" depart="44" />
    <vehicle id="left_16" type="car" route="left" depart="49" />
    <vehicle id="right_17" type="car" route="right" depart="56" />
    <vehicle id="right_18" type="car" route="right" depart="63" />
    <vehicle id="right_19" type="car" route="right" depart="64" />
    <vehicle id="left_20" type="car" route="left" depart="67" />
    <vehicle id="down_21" type="car1" route="down" depart="72" color="1,0,0"/>
    <vehicle id="left_22" type="car" route="left" depart="74" />
    <vehicle id="right_23" type="car" route="right" depart="81" />
    <vehicle id="down_24" type="car1" route="down" depart="85" color="1,0,0"/>
    <vehicle id="right_25" type="car" route="right" depart="92" />
    <vehicle id="down_26" type="car1" route="down" depart="98" color="1,0,0"/>
    <vehicle id="up_27" type="car1" route="up" depart="103" color="1,0,0"/>
    <vehicle id="up_28" type="car1" route="up" depart="106" color="1,0,0"/>
    <vehicle id="right_29" type="car" route="right" depart="115" />
    <vehicle id="left_30" type="car" route="left" depart="117" />
    <vehicle id="left_31" type="car" route="left" depart="120" />
    <vehicle id="left_32" type="car" route="left" depart="123" />
    <vehicle id="left_33" type="car" route="left" depart="125" />
    <vehicle id="right_34" type="car" route="right" depart="126" />
    <vehicle id="right_35" type="car" route="right" depart="127" />
    <vehicle id="left_36" type="car" route="left" depart="129" />
    <vehicle id="down_37" type="car1" route="down" depart="129" color="1,0,0"/>
    <vehicle id="right_38" type="car" route="right" depart="132" />
    <vehicle id="up_39" type="car1" route="up" depart="135" color="1,0,0"/>
    <vehicle id="left_40" type="car" route="left" depart="137" />
    <vehicle id="left_41" type="car" route="left" depart="147" />
    <vehicle id="down_42" type="car1" route="down" depart="149" color="1,0,0"/>
    <vehicle id="right_43" type="car" route="right" depart="150" />
    <vehicle id="right_44" type="car" route="right" depart="152" />
    <vehicle id="left_45" type="car" route="left" depart="159" />
    <vehicle id="right_46" type="car" route="right" depart="164" />
    <vehicle id="right_47" type="car" route="right" depart="171" />
    <vehicle id="right_48" type="car" route="right" depart="179" />
    <vehicle id="right_49" type="car" route="right" depart="180" />
    <vehicle id="right_50" type="car" route="right" depart="182" />
    <vehicle id="left_51" type="car" route="left" depart="204" />
    <vehicle id="up_52" type="car1" route="up" depart="212" color="1,0,0"/>
    <vehicle id="right_53" type="car" route="right" depart="213" />
    <vehicle id="right_54" type="car" route="right" depart="216" />
    <vehicle id="left_55" type="car" route="left" depart="218" />
    <vehicle id="down_56" type="car1" route="down" depart="220" color="1,0,0"/>
    <vehicle id="right_57" type="car" route="right" depart="227" />
    <vehicle id="left_58" type="car" route="left" depart="232" />
    <vehicle id="right_59" type="car" route="right" depart="239" />
    <vehicle id="down_60" type="car1" route="down" depart="241" color="1,0,0"/>
    <vehicle id="right_61" type="car" route="right" depart="245" />
    <vehicle id="up_62" type="car1" route="up" depart="248" color="1,0,0"/>
    <vehicle id="right_63" type="car" route="right" depart="250" />
    <vehicle id="left_64" type="car" route="left" depart="253" />
    <vehicle id="down_65" type="car1" route="down" depart="256" color="1,0,0"/>
    <vehicle id="left_66" type="car" route="left" depart="258" />
    <vehicle id="down_67" type="car1" route="down" depart="258" color="1,0,0"/>
    <vehicle id="left_68" type="car" route="left" depart="262" />
    <vehicle id="left_69" type="car" route="left" depart="265" />
    <vehicle id="right_70" type="car" route="right" depart="266" />
    <vehicle id="left_71" type="car" route="left" depart="281" />
    <vehicle id="left_72" type="car" route="left" depart="283" />
    <vehicle id="up_73" type="car1" route="up" depart="284" color="1,0,0"/>
    <vehicle id="right_74" type="car" route="right" depart="287" />
    <vehicle id="left_75" type="car" route="left" depart="287" />
    <vehicle id="left_76" type="car" route="left" depart="291" />
    <vehicle id="right_77" type="car" route="right" depart="292" />
    <vehicle id="down_78" type="car1" route="down" depart="293" color="1,0,0"/>
    <vehicle id="right_79" type="car" route="right" depart="296" />
    <vehicle id="left_80" type="car" route="left" depart="296" />
    <vehicle id="left_81" type="car" route="left" depart="298" />
    <vehicle id="right_82" type="car" route="right" depart="309" />
    <vehicle id="right_83" type="car" route="right" depart="310" />
    <vehicle id="right_84" type="car" route="right" depart="311" />
    <vehicle id="left_85" type="car" route="left" depart="315" />
    <vehicle id="right_86" type="car" route="right" depart="320" />
    <vehicle id="right_87" type="car" route="right" depart="329" />
    <vehicle id="left_88" type="car" route="left" depart="343" />
    <vehicle id="up_89" type="car1" route="up" depart="344" color="1,0,0"/>
    <vehicle id="up_90" type="car1" route="up" depart="347" color="1,0,0"/>
    <vehicle id="right_91" type="car" route="right" depart="348" />
    <vehicle id="left_92" type="car" route="left" depart="350" />
    <vehicle id="right_93" type="car" route="right" depart="352" />
    <vehicle id="left_94" type="car" route="left" depart="354" />
    <vehicle id="left_95" type="car" route="left" depart="357" />
    <vehicle id="left_96" type="car" route="left" depart="359" />
    <vehicle id="right_97" type="car" route="right" depart="363" />
    <vehicle id="left_98" type="car" route="left" depart="369" />
    <vehicle id="left_99" type="car" route="left" depart="372" />
    <vehicle id="right_100" type="car" route="right" depart="374" />
    <vehicle id="left_101" type="car" route="left" depart="376" />
    <vehicle id="right_102" type="car" route="right" depart="389" />
    <vehicle id="left_103" type="car" route="left" depart="392" />
    <vehicle id="right_104" type="car" route="right" depart="402" />
    <vehicle id="left_105" type="car" route="left" depart="402" />
    <vehicle id="right_106" type="car" route="right" depart="406" />
    <vehicle id="left_107" type="car" route="left" depart="406" />
    <vehicle id="left_108" type="car" route="left" depart="414" />
    <vehicle id="up_109" type="car1" route="up" depart="423" color="1,0,0"/>
    <vehicle id="left_110" type="car" route="left" depart="430" />
    <vehicle id="up_111" type="car1" route="up" depart="433" color="1,0,0"/>
    <vehicle id="down_112" type="car1" route="down" depart="434" color="1,0,0"/>
    <vehicle id="up_113" type="car1" route="up" depart="451" color="1,0,0"/>
    <vehicle id="right_114" type="car" route="right" depart="459" />
    <vehicle id="down_115" type="car1" route="down" depart="468" color="1,0,0"/>
    <vehicle id="left_116" type="car" route="left" depart="469" />
    <vehicle id="right_117" type="car" route="right" depart="477" />
    <vehicle id="right_118" type="car" route="right" depart="481" />
    <vehicle id="right_119" type="car" route="right" depart="483" />
    <vehicle id="left_120" type="car" route="left" depart="484" />
    <vehicle id="up_121" type="car1" route="up" depart="484" color="1,0,0"/>
    <vehicle id="left_122" type="car" route="left" depart="490" />
    <vehicle id="down_123" type="car1" route="down" depart="490" color="1,0,0"/>
    <vehicle id="down_124" type="car1" route="down" depart="494" color="1,0,0"/>
    <vehicle id="left_125" type="car" route="left" depart="495" />
    <vehicle id="right_126" type="car" route="right" depart="496" />
    <vehicle id="right_127" type="car" route="right" depart="501" />
    <vehicle id="down_128" type="car1" route="down" depart="512" color="1,0,0"/>
    <vehicle id="right_129" type="car" route="right" depart="517" />
    <vehicle id="up_130" type="car1" route="up" depart="525" color="1,0,0"/>
    <vehicle id="right_131" type="car" route="right" depart="528" />
    <vehicle id="right_132" type="car" route="right" depart="530" />
    <vehicle id="down_133" type="car1" route="down" depart="530" color="1,0,0"/>
    <vehicle id="down_134" type="car1" route="down" depart="531" color="1,0,0"/>
    <vehicle id="right_135" type="car" route="right" depart="533" />
    <vehicle id="right_136" type="car" route="right" depart="538" />
    <vehicle id="left_137" type="car" route="left" depart="538" />
    <vehicle id="right_138" type="car" route="right" depart="540" />
    <vehicle id="up_139" type="car1" route="up" depart="541" color="1,0,0"/>
    <vehicle id="right_140" type="car" route="right" depart="542" />
    <vehicle id="right_141" type="car" route="right" depart="543" />
    <vehicle id="right_142" type="car" route="right" depart="545" />
    <vehicle id="left_143" type="car" route="left" depart="548" />
    <vehicle id="left_144" type="car" route="left" depart="550" />
    <vehicle id="left_145" type="car" route="left" depart="555" />
    <vehicle id="down_146" type="car1" route="down" depart="557" color="1,0,0"/>
    <vehicle id="right_147" type="car" route="right" depart="558" />
    <vehicle id="right_148" type="car" route="right" depart="562" />
    <vehicle id="right_149" type="car" route="right" depart="563" />
    <vehicle id="left_150" type="car" route="left" depart="576" />
    <vehicle id="up_151" type="car1" route="up" depart="580" color="1,0,0"/>
    <vehicle id="down_152" type="car1" route="down" depart="582" color="1,0,0"/>
    <vehicle id="down_153" type="car1" route="down" depart="585" color="1,0,0"/>
    <vehicle id="up_154" type="car1" route="up" depart="593" color="1,0,0"/>
    <vehicle id="right_155" type="car" route="right" depart="596" />
    <vehicle id="right_156" type="car" route="right" depart="601" />
    <vehicle id="right_157" type="car" route="right" depart="606" />
    <vehicle id="down_158" type="car1" route="down" depart="606" color="1,0,0"/>
    <vehicle id="right_159" type="car" route="right" depart="609" />
    <vehicle id="left_160" type="car" route="left" depart="609" />
    <vehicle id="left_161" type="car" route="left" depart="613" />
    <vehicle id="right_162" type="car" route="right" depart="629" />
    <vehicle id="right_163" type="car" route="right" depart="634" />
    <vehicle id="up_164" type="car1" route="up" depart="635" color="1,0,0"/>
    <vehicle id="up_165" type="car1" route="up" depart="640" color="1,0,0"/>
    <vehicle id="right_166" type="car" route="right" depart="642" />
    <vehicle id="up_167" type="car1" route="up" depart="646" color="1,0,0"/>
    <vehicle id="right_168" type="car" route="right" depart="649" />
    <vehicle id="left_169" type="car" route="left" depart="651" />
    <vehicle id="left_170" type="car" route="left" depart="659" />
    <vehicle id="right_171" type="car" route="right" depart="660" />
    <vehicle id="left_172" type="car" route="left" depart="660" />
    <vehicle id="right_173" type="car" route="right" depart="662" />
    <vehicle id="left_174" type="car" route="left" depart="665" />
    <vehicle id="left_175" type="car" route="left" depart="666" />
    <vehicle id="up_176" type="car1" route="up" depart="671" color="1,0,0"/>
    <vehicle id="left_177" type="car" route="left" depart="673" />
    <vehicle id="left_178" type="car" route="left" depart="676" />
    <vehicle id="left_179" type="car" route="left" depart="680" />
    <vehicle id="left_180" type="car" route="left" depart="682" />
    <vehicle id="up_181" type="car1" route="up" depart="683" color="1,0,0"/>
    <vehicle id="right_182" type="car" route="right" depart="687" />
    <vehicle id="up_183" type="car1" route="up" depart="688" color="1,0,0"/>
    <vehicle id="left_184" type="car" route="left" depart="693" />
    <vehicle id="left_185" type="car" route="left" depart="694" />
    <vehicle id="left_186" type="car" route="left" depart="697" />
    <vehicle id="up_187" type="car1" route="up" depart="701" color="1,0,0"/>
    <vehicle id="left_188" type="car" route="left" depart="704" />
    <vehicle id="left_189" type="car" route="left" depart="706" />
    <vehicle id="right_190" type="car" route="right" depart="709" />
    <vehicle id="left_191" type="car" route="left" depart="709" />
    <vehicle id="right_192" type="car" route="right" depart="711" />
    <vehicle id="down_193" type="car1" route="down" depart="712" color="1,0,0"/>
    <vehicle id="left_194" type="car" route="left" depart="714" />
    <vehicle id="left_195" type="car" route="left" depart="721" />
    <vehicle id="right_196" type="car" route="right" depart="724" />
    <vehicle id="left_197" type="car" route="left" depart="727" />
    <vehicle id="right_198" type="car" route="right" depart="730" />
    <vehicle id="right_199" type="car" route="right" depart="731" />
    <vehicle id="right_200" type="car" route="right" depart="733" />
    <vehicle id="up_201" type="car1" route="up" depart="741" color="1,0,0"/>
    <vehicle id="right_202" type="car" route="right" depart="745" />
    <vehicle id="down_203" type="car1" route="down" depart="747" color="1,0,0"/>
    <vehicle id="right_204" type="car" route="right" depart="751" />
    <vehicle id="left_205" type="car" route="left" depart="752" />
    <vehicle id="up_206" type="car1" route="up" depart="754" color="1,0,0"/>
    <vehicle id="left_207" type="car" route="left" depart="758" />
    <vehicle id="up_208" type="car1" route="up" depart="760" color="1,0,0"/>
    <vehicle id="right_209" type="car" route="right" depart="763" />
    <vehicle id="left_210" type="car" route="left" depart="766" />
    <vehicle id="left_211" type="car" route="left" depart="782" />
    <vehicle id="left_212" type="car" route="left" depart="785" />
    <vehicle id="down_213" type="car1" route="down" depart="792" color="1,0,0"/>
    <vehicle id="up_214" type="car1" route="up" depart="795" color="1,0,0"/>
    <vehicle id="right_215" type="car" route="right" depart="801" />
    <vehicle id="up_216" type="car1" route="up" depart="801" color="1,0,0"/>
    <vehicle id="up_217" type="car1" route="up" depart="802" color="1,0,0"/>
    <vehicle id="right_218" type="car" route="right" depart="814" />
    <vehicle id="right_219" type="car" route="right" depart="823" />
    <vehicle id="left_220" type="car" route="left" depart="828" />
    <vehicle id="right_221" type="car" route="right" depart="830" />
    <vehicle id="left_222" type="car" route="left" depart="832" />
    <vehicle id="left_223" type="car" route="left" depart="841" />
    <vehicle id="left_224" type="car" route="left" depart="842" />
    <vehicle id="left_225" type="car" route="left" depart="843" />
    <vehicle id="left_226" type="car" route="left" depart="850" />
    <vehicle id="down_227" type="car1" route="down" depart="851" color="1,0,0"/>
    <vehicle id="right_228" type="car" route="right" depart="853" />
    <vehicle id="up_229" type="car1" route="up" depart="855" color="1,0,0"/>
    <vehicle id="right_230" type="car" route="right" depart="857" />
    <vehicle id="left_231" type="car" route="left" depart="865" />
    <vehicle id="left_232" type="car" route="left" depart="867" />
    <vehicle id="left_233" type="car" route="left" depart="874" />
    <vehicle id="left_234" type="car" route="left" depart="875" />
    <vehicle id="left_235" type="car" route="left" depart="879" />
    <vehicle id="right_236" type="car" route="right" depart="886" />
    <vehicle id="left_237" type="car" route="left" depart="892" />
    <vehicle id="right_238" type="car" route="right" depart="906" />
    <vehicle id="right_239" type="car" route="right" depart="909" />
    <vehicle id="up_240" type="car1" route="up" depart="913" color="1,0,0"/>
    <vehicle id="left_241" type="car" route="left" depart="924" />
    <vehicle id="right_242" type="car" route="right" depart="928" />
    <vehicle id="up_243" type="car1" route="up" depart="932" color="1,0,0"/>
    <vehicle id="up_244" type="car1" route="up" depart="934" color="1,0,0"/>
    <vehicle id="right_245" type="car" route="right" depart="935" />
    <vehicle id="right_246" type="car" route="right" depart="939" />
    <vehicle id="left_247" type="car" route="left" depart="939" />
    <vehicle id="down_248" type="car1" route="down" depart="941" color="1,0,0"/>
    <vehicle id="left_249" type="car" route="left" depart="950" />
    <vehicle id="left_250" type="car" route="left" depart="956" />
    <vehicle id="right_251" type="car" route="right" depart="961" />
    <vehicle id="left_252" type="car" route="left" depart="966" />
    <vehicle id="up_253" type="car1" route="up" depart="966" color="1,0,0"/>
    <vehicle id="left_254" type="car" route="left" depart="967" />
    <vehicle id="right_255" type="car" route="right" depart="976" />
    <vehicle id="right_256" type="car" route="right" depart="978" />
    <vehicle id="left_257" type="car" route="left" depart="988" />
    <vehicle id="right_258" type="car" route="right" depart="990" />
    <vehicle id="down_259" type="car1" route="down" depart="991" color="1,0,0"/>
    <vehicle id="left_260" type="car" route="left" depart="999" />
    <vehicle id="right_261" type="car" route="right" depart="1005" />
    <vehicle id="left_262" type="car" route="left" depart="1008" />
    <vehicle id="up_263" type="car1" route="up" depart="1017" color="1,0,0"/>
    <vehicle id="right_264" type="car" route="right" depart="1018" />
    <vehicle id="right_265" type="car" route="right" depart="1019" />
    <vehicle id="up_266" type="car1" route="up" depart="1019" color="1,0,0"/>
    <vehicle id="up_267" type="car1" route="up" depart="1024" color="1,0,0"/>
    <vehicle id="left_268" type="car" route="left" depart="1025" />
    <vehicle id="left_269" type="car" route="left" depart="1031" />
    <vehicle id="down_270" type="car1" route="down" depart="1035" color="1,0,0"/>
    <vehicle id="right_271" type="car" route="right" depart="1036" />
    <vehicle id="right_272" type="car" route="right" depart="1038" />
    <vehicle id="up_273" type="car1" route="up" depart="1045" color="1,0,0"/>
    <vehicle id="right_274" type="car" route="right" depart="1049" />
    <vehicle id="right_275" type="car" route="right" depart="1052" />
    <vehicle id="right_276" type="car" route="right" depart="1065" />
    <vehicle id="right_277" type="car" route="right" depart="1071" />
    <vehicle id="up_278" type="car1" route="up" depart="1074" color="1,0,0"/>
    <vehicle id="right_279" type="car" route="right" depart="1076" />
    <vehicle id="down_280" type="car1" route="down" depart="1077" color="1,0,0"/>
    <vehicle id="left_281" type="car" route="left" depart="1078" />
    <vehicle id="right_282" type="car" route="right" depart="1081" />
    <vehicle id="down_283" type="car1" route="down" depart="1087" color="1,0,0"/>
    <vehicle id="up_284" type="car1" route="up" depart="1088" color="1,0,0"/>
    <vehicle id="up_285" type="car1" route="up" depart="1089" color="1,0,0"/>
    <vehicle id="up_286" type="car1" route="up" depart="1090" color="1,0,0"/>
    <vehicle id="up_287" type="car1" route="up" depart="1097" color="1,0,0"/>
    <vehicle id="right_288" type="car" route="right" depart="1098" />
    <vehicle id="left_289" type="car" route="left" depart="1103" />
    <vehicle id="left_290" type="car" route="left" depart="1106" />
    <vehicle id="up_291" type="car1" route="up" depart="1108" color="1,0,0"/>
    <vehicle id="up_292" type="car1" route="up" depart="1112" color="1,0,0"/>
    <vehicle id="right_293" type="car" route="right" depart="1113" />
    <vehicle id="left_294" type="car" route="left" depart="1114" />
    <vehicle id="right_295" type="car" route="right" depart="1116" />
    <vehicle id="right_296" type="car" route="right" depart="1123" />
    <vehicle id="left_297" type="car" route="left" depart="1124" />
    <vehicle id="left_298" type="car" route="left" depart="1125" />
    <vehicle id="left_299" type="car" route="left" depart="1129" />
    <vehicle id="right_300" type="car" route="right" depart="1133" />
    <vehicle id="left_301" type="car" route="left" depart="1134" />
    <vehicle id="up_302" type="car1" route="up" depart="1136" color="1,0,0"/>
    <vehicle id="right_303" type="car" route="right" depart="1137" />
    <vehicle id="right_304" type="car" route="right" depart="1138" />
    <vehicle id="left_305" type="car" route="left" depart="1150" />
    <vehicle id="left_306" type="car" route="left" depart="1152" />
    <vehicle id="right_307" type="car" route="right" depart="1154" />
    <vehicle id="right_308" type="car" route="right" depart="1158" />
    <vehicle id="down_309" type="car1" route="down" depart="1160" color="1,0,0"/>
    <vehicle id="left_310" type="car" route="left" depart="1165" />
    <vehicle id="up_311" type="car1" route="up" depart="1165" color="1,0,0"/>
    <vehicle id="left_312" type="car" route="left" depart="1166" />
    <vehicle id="left_313" type="car" route="left" depart="1169" />
    <vehicle id="left_314" type="car" route="left" depart="1170" />
    <vehicle id="up_315" type="car1" route="up" depart="1171" color="1,0,0"/>
    <vehicle id="left_316" type="car" route="left" depart="1175" />
    <vehicle id="down_317" type="car1" route="down" depart="1176" color="1,0,0"/>
    <vehicle id="down_318" type="car1" route="down" depart="1177" color="1,0,0"/>
    <vehicle id="right_319" type="car" route="right" depart="1180" />
    <vehicle id="up_320" type="car1" route="up" depart="1180" color="1,0,0"/>
    <vehicle id="right_321" type="car" route="right" depart="1182" />
    <vehicle id="down_322" type="car1" route="down" depart="1182" color="1,0,0"/>
    <vehicle id="right_323" type="car" route="right" depart="1184" />
    <vehicle id="down_324" type="car1" route="down" depart="1187" color="1,0,0"/>
    <vehicle id="up_325" type="car1" route="up" depart="1191" color="1,0,0"/>
    <vehicle id="left_326" type="car" route="left" depart="1193" />
    <vehicle id="right_327" type="car" route="right" depart="1209" />
    <vehicle id="down_328" type="car1" route="down" depart="1209" color="1,0,0"/>
    <vehicle id="right_329" type="car" route="right" depart="1211" />
    <vehicle id="left_330" type="car" route="left" depart="1213" />
    <vehicle id="left_331" type="car" route="left" depart="1234" />
    <vehicle id="left_332" type="car" route="left" depart="1238" />
    <vehicle id="up_333" type="car1" route="up" depart="1239" color="1,0,0"/>
    <vehicle id="left_334" type="car" route="left" depart="1252" />
    <vehicle id="down_335" type="car1" route="down" depart="1252" color="1,0,0"/>
    <vehicle id="right_336" type="car" route="right" depart="1255" />
    <vehicle id="up_337" type="car1" route="up" depart="1256" color="1,0,0"/>
    <vehicle id="right_338" type="car" route="right" depart="1258" />
    <vehicle id="right_339" type="car" route="right" depart="1265" />
    <vehicle id="up_340" type="car1" route="up" depart="1267" color="1,0,0"/>
    <vehicle id="right_341" type="car" route="right" depart="1271" />
    <vehicle id="down_342" type="car1" route="down" depart="1275" color="1,0,0"/>
    <vehicle id="right_343" type="car" route="right" depart="1277" />
    <vehicle id="up_344" type="car1" route="up" depart="1280" color="1,0,0"/>
    <vehicle id="left_345" type="car" route="left" depart="1283" />
    <vehicle id="left_346" type="car" route="left" depart="1285" />
    <vehicle id="right_347" type="car" route="right" depart="1294" />
    <vehicle id="right_348" type="car" route="right" depart="1304" />
    <vehicle id="right_349" type="car" route="right" depart="1307" />
    <vehicle id="right_350" type="car" route="right" depart="1311" />
    <vehicle id="left_351" type="car" route="left" depart="1311" />
    <vehicle id="right_352" type="car" route="right" depart="1313" />
    <vehicle id="right_353" type="car" route="right" depart="1319" />
    <vehicle id="left_354" type="car" route="left" depart="1320" />
    <vehicle id="right_355" type="car" route="right" depart="1329" />
    <vehicle id="right_356" type="car" route="right" depart="1330" />
    <vehicle id="right_357" type="car" route="right" depart="1331" />
    <vehicle id="up_358" type="car1" route="up" depart="1333" color="1,0,0"/>
    <vehicle id="right_359" type="car" route="right" depart="1335" />
    <vehicle id="right_360" type="car" route="right" depart="1337" />
    <vehicle id="up_361" type="car1" route="up" depart="1338" color="1,0,0"/>
    <vehicle id="right_362" type="car" route="right" depart="1342" />
    <vehicle id="up_363" type="car1" route="up" depart="1348" color="1,0,0"/>
    <vehicle id="left_364" type="car" route="left" depart="1350" />
    <vehicle id="right_365" type="car" route="right" depart="1356" />
    <vehicle id="up_366" type="car1" route="up" depart="1357" color="1,0,0"/>
    <vehicle id="right_367" type="car" route="right" depart="1358" />
    <vehicle id="right_368" type="car" route="right" depart="1375" />
    <vehicle id="up_369" type="car1" route="up" depart="1379" color="1,0,0"/>
    <vehicle id="left_370" type="car" route="left" depart="1385" />
    <vehicle id="right_371" type="car" route="right" depart="1386" />
    <vehicle id="up_372" type="car1" route="up" depart="1389" color="1,0,0"/>
    <vehicle id="up_373" type="car1" route="up" depart="1390" color="1,0,0"/>
    <vehicle id="up_374" type="car1" route="up" depart="1398" color="1,0,0"/>
    <vehicle id="right_375" type="car" route="right" depart="1399" />
    <vehicle id="right_376" type="car" route="right" depart="1400" />
    <vehicle id="down_377" type="car1" route="down" depart="1400" color="1,0,0"/>
    <vehicle id="right_378" type="car" route="right" depart="1401" />
    <vehicle id="left_379" type="car" route="left" depart="1404" />
    <vehicle id="right_380" type="car" route="right" depart="1406" />
    <vehicle id="right_381" type="car" route="right" depart="1407" />
    <vehicle id="up_382" type="car1" route="up" depart="1410" color="1,0,0"/>
    <vehicle id="left_383" type="car" route="left" depart="1421" />
    <vehicle id="up_384" type="car1" route="up" depart="1428" color="1,0,0"/>
    <vehicle id="left_385" type="car" route="left" depart="1429" />
    <vehicle id="right_386" type="car" route="right" depart="1430" />
    <vehicle id="right_387" type="car" route="right" depart="1432" />
    <vehicle id="right_388" type="car" route="right" depart="1435" />
    <vehicle id="left_389" type="car" route="left" depart="1438" />
    <vehicle id="right_390" type="car" route="right" depart="1440" />
    <vehicle id="left_391" type="car" route="left" depart="1443" />
    <vehicle id="right_392" type="car" route="right" depart="1451" />
    <vehicle id="up_393" type="car1" route="up" depart="1461" color="1,0,0"/>
    <vehicle id="right_394" type="car" route="right" depart="1465" />
    <vehicle id="up_395" type="car1" route="up" depart="1469" color="1,0,0"/>
    <vehicle id="left_396" type="car" route="left" depart="1477" />
    <vehicle id="left_397" type="car" route="left" depart="1478" />
    <vehicle id="left_398" type="car" route="left" depart="1482" />
    <vehicle id="left_399" type="car" route="left" depart="1485" />
    <vehicle id="left_400" type="car" route="left" depart="1487" />
    <vehicle id="right_401" type="car" route="right" depart="1490" />
    <vehicle id="down_402" type="car1" route="down" depart="1491" color="1,0,0"/>
    <vehicle id="up_403" type="car1" route="up" depart="1491" color="1,0,0"/>
    <vehicle id="left_404" type="car" route="left" depart="1495" />
    <vehicle id="left_405" type="car" route="left" depart="1505" />
    <vehicle id="right_406" type="car" route="right" depart="1510" />
    <vehicle id="right_407" type="car" route="right" depart="1513" />
    <vehicle id="right_408" type="car" route="right" depart="1515" />
    <vehicle id="left_409" type="car" route="left" depart="1518" />
    <vehicle id="right_410" type="car" route="right" depart="1523" />
    <vehicle id="down_411" type="car1" route="down" depart="1523" color="1,0,0"/>
    <vehicle id="right_412" type="car" route="right" depart="1536" />
    <vehicle id="up_413" type="car1" route="up" depart="1549" color="1,0,0"/>
    <vehicle id="down_414" type="car1" route="down" depart="1551" color="1,0,0"/>
    <vehicle id="down_415" type="car1" route="down" depart="1557" color="1,0,0"/>